@<TRIPOS>MOLECULE
17-conf.pdb
54 57 1 0 0
SMALL
NO_CHARGES


@<TRIPOS>ATOM
      1 C9         37.3120   31.5040   -6.8170 C.ar      1 892    0.0000
      2 C8         37.1460   32.8350   -6.9680 C.ar      1 892    0.0000
      3 C5         36.2740   31.0880   -5.8230 C.ar      1 892    0.0000
      4 C6         35.9390   29.8650   -5.2680 C.ar      1 892    0.0000
      5 C4         35.5500   32.2970   -5.4470 C.ar      1 892    0.0000
      6 O7         36.0650   33.3550   -6.1320 O.2       1 892    0.0000
      7 C3         34.5110   32.2710   -4.5370 C.ar      1 892    0.0000
      8 C2         34.1880   31.0360   -3.9840 C.ar      1 892    0.0000
      9 C1         34.8850   29.8700   -4.3440 C.ar      1 892    0.0000
     10 S01        32.8820   30.9740   -2.8570 S.o2      1 892    0.0000
     11 O01        33.3270   30.2930   -1.6430 O.2       1 892    0.0000
     12 O02        32.4860   32.3480   -2.5330 O.2       1 892    0.0000
     13 N01        31.5590   30.0810   -3.5150 N.pl3     1 892    0.0000
     14 C02        30.9340   30.4470   -4.6560 C.ar      1 892    0.0000
     15 C01        30.0000   29.5860   -5.2200 C.ar      1 892    0.0000
     16 C05        29.3350   29.9370   -6.3890 C.ar      1 892    0.0000
     17 C06        29.6060   31.1550   -7.0000 C.ar      1 892    0.0000
     18 C07        30.5420   32.0240   -6.4410 C.ar      1 892    0.0000
     19 C04        31.2050   31.6710   -5.2670 C.ar      1 892    0.0000
     20 S02        28.7510   31.5930   -8.4990 S.o2      1 892    0.0000
     21 N02        28.0010   33.0780   -8.2750 N.3       1 892    0.0000
     22 O03        27.7690   30.5690   -8.8090 O.2       1 892    0.0000
     23 O05        29.7090   31.6930   -9.5850 O.2       1 892    0.0000
     24 C03        38.1890   30.6740   -7.4210 C.2       1 892    0.0000
     25 O19        39.1840   30.2980   -6.8090 O.2       1 892    0.0000
     26 C11        38.0070   30.1590   -8.8260 C.ar      1 892    0.0000
     27 C12        37.4150   31.0010   -9.7720 C.ar      1 892    0.0000
     28 C13        37.2250   30.5750  -11.0840 C.ar      1 892    0.0000
     29 BR22       36.4510   31.6470  -12.4160 Br        1 892    0.0000
     30 C14        37.6470   29.2280  -11.4830 C.ar      1 892    0.0000
     31 C15        38.2640   28.3720  -10.4610 C.ar      1 892    0.0000
     32 O20        37.4730   28.7970  -12.7580 O.3       1 892    0.0000
     33 BR21       38.8130   26.6350  -10.9560 Br        1 892    0.0000
     34 C16        38.4160   28.8660   -9.1700 C.ar      1 892    0.0000
     35 C17        37.9330   33.7610   -7.8620 C.3       1 892    0.0000
     36 C18        39.4080   33.6240   -7.5350 C.3       1 892    0.0000
     37 H6         36.4609   28.9571   -5.5323 H         1 892    0.0000
     38 H3         33.9740   33.1684   -4.2672 H         1 892    0.0000
     39 H1         34.5953   28.9349   -3.8878 H         1 892    0.0000
     40 HN01       31.2404   29.2547   -3.0294 H         1 892    0.0000
     41 H01        29.7896   28.6382   -4.7469 H         1 892    0.0000
     42 H05        28.6091   29.2643   -6.8215 H         1 892    0.0000
     43 H07        30.7531   32.9700   -6.9173 H         1 892    0.0000
     44 H04        31.9278   32.3446   -4.8309 H         1 892    0.0000
     45 H12        37.1015   31.9930   -9.4820 H         1 892    0.0000
     46 H16        38.8609   28.2359   -8.4141 H         1 892    0.0000
     47 H172       37.6150   34.7899   -7.6934 H         1 892    0.0000
     48 H173       37.7638   33.4928   -8.9049 H         1 892    0.0000
     49 H181       39.8789   34.6067   -7.5594 H         1 892    0.0000
     50 H182       39.5208   33.1919   -6.5407 H         1 892    0.0000
     51 H183       39.8842   32.9746   -8.2696 H         1 892    0.0000
     52 H021       27.2544   33.1834   -8.9470 H         1 892    0.0000
     53 H022       28.6758   33.8186   -8.4025 H         1 892    0.0000
     54 H20        37.9554   29.3705  -13.3580 H         1 892    0.0000
@<TRIPOS>BOND
     1   33   31 1
     2   29   28 1
     3   15   14 ar
     4   15   16 ar
     5   14   13 1
     6   14   19 ar
     7   24    1 1
     8   24   25 2
     9   24   26 1
    10   19   18 ar
    11   16   17 ar
    12   17   18 ar
    13   17   20 1
    14    9    4 ar
    15    9    8 ar
    16   26   27 ar
    17   26   34 ar
    18   27   28 ar
    19   28   30 ar
    20   30   31 ar
    21   30   32 1
    22   31   34 ar
    23   35    2 1
    24   35   36 1
    25    8   10 1
    26    8    7 ar
    27    7    5 ar
    28    5    3 ar
    29    5    6 ar
    30    3    1 ar
    31    3    4 ar
    32    2    1 ar
    33    2    6 ar
    34   13   10 1
    35   21   20 1
    36   11   10 2
    37   12   10 2
    38   22   20 2
    39   23   20 2
    40   37    4 1
    41   38    7 1
    42   39    9 1
    43   40   13 1
    44   41   15 1
    45   42   16 1
    46   43   18 1
    47   44   19 1
    48   45   27 1
    49   46   34 1
    50   47   35 1
    51   48   35 1
    52   49   36 1
    53   50   36 1
    54   51   36 1
    55   52   21 1
    56   53   21 1
    57   54   32 1
@<TRIPOS>SUBSTRUCTURE
     1 892     1 RESIDUE           4 A     892     0 ROOT
